180730
  -OEChem-06011708142D

 73 77  0     1  0  0  0  0  0999 V2000
    6.8671   -1.7836    0.0000 O   0  0  0  0  0  0  0  0  0  0  0  0
    6.0010   -4.2836    0.0000 O   0  0  0  0  0  0  0  0  0  0  0  0
    4.2690   -4.2836    0.0000 O   0  0  0  0  0  0  0  0  0  0  0  0
    7.7331   -4.2836    0.0000 O   0  0  0  0  0  0  0  0  0  0  0  0
    9.4651   -3.2836    0.0000 O   0  0  0  0  0  0  0  0  0  0  0  0
    9.4651   -1.2836    0.0000 O   0  0  0  0  0  0  0  0  0  0  0  0
    6.0010   -6.2836    0.0000 O   0  0  0  0  0  0  0  0  0  0  0  0
    4.2690   -7.2836    0.0000 O   0  0  0  0  0  0  0  0  0  0  0  0
    2.5369   -6.2836    0.0000 O   0  0  0  0  0  0  0  0  0  0  0  0
    2.5369   -3.2836    0.0000 O   0  0  0  0  0  0  0  0  0  0  0  0
    9.4651   -0.2836    0.0000 O   0  0  0  0  0  0  0  0  0  0  0  0
    6.0010   -0.2836    0.0000 O   0  0  0  0  0  0  0  0  0  0  0  0
    7.7170    2.7579    0.0000 O   0  0  0  0  0  0  0  0  0  0  0  0
   10.3693    1.2133    0.0000 O   0  0  0  0  0  0  0  0  0  0  0  0
   10.3355    6.2923    0.0000 O   0  0  0  0  0  0  0  0  0  0  0  0
    8.5996    7.2856    0.0000 O   0  0  0  0  0  0  0  0  0  0  0  0
    6.8671   -2.7836    0.0000 C   0  0  1  0  0  0  0  0  0  0  0  0
    7.7331   -3.2836    0.0000 C   0  0  2  0  0  0  0  0  0  0  0  0
    8.5991   -2.7836    0.0000 C   0  0  1  0  0  0  0  0  0  0  0  0
    8.5991   -1.7836    0.0000 C   0  0  2  0  0  0  0  0  0  0  0  0
    7.7331   -1.2836    0.0000 C   0  0  2  0  0  0  0  0  0  0  0  0
    6.0010   -3.2836    0.0000 C   0  0  0  0  0  0  0  0  0  0  0  0
    5.1350   -4.7836    0.0000 C   0  0  2  0  0  0  0  0  0  0  0  0
    5.1350   -5.7836    0.0000 C   0  0  1  0  0  0  0  0  0  0  0  0
    4.2690   -6.2836    0.0000 C   0  0  2  0  0  0  0  0  0  0  0  0
    3.4030   -5.7836    0.0000 C   0  0  1  0  0  0  0  0  0  0  0  0
    3.4030   -4.7836    0.0000 C   0  0  1  0  0  0  0  0  0  0  0  0
    7.7331   -0.2836    0.0000 C   0  0  0  0  0  0  0  0  0  0  0  0
    2.5369   -4.2836    0.0000 C   0  0  0  0  0  0  0  0  0  0  0  0
    8.5991    0.2164    0.0000 C   0  0  0  0  0  0  0  0  0  0  0  0
    6.8671    0.2164    0.0000 C   0  0  0  0  0  0  0  0  0  0  0  0
    8.5991    1.2164    0.0000 C   0  0  0  0  0  0  0  0  0  0  0  0
    6.8671    1.2164    0.0000 C   0  0  0  0  0  0  0  0  0  0  0  0
    7.7331    1.7164    0.0000 C   0  0  0  0  0  0  0  0  0  0  0  0
    9.5091    1.7233    0.0000 C   0  0  0  0  0  0  0  0  0  0  0  0
    9.5171    2.7649    0.0000 C   0  0  0  0  0  0  0  0  0  0  0  0
    8.6151    3.2857    0.0000 C   0  0  0  0  0  0  0  0  0  0  0  0
    8.6112    4.2857    0.0000 C   0  0  0  0  0  0  0  0  0  0  0  0
    9.4753    4.7890    0.0000 C   0  0  0  0  0  0  0  0  0  0  0  0
    7.7433    4.7823    0.0000 C   0  0  0  0  0  0  0  0  0  0  0  0
    9.4715    5.7890    0.0000 C   0  0  0  0  0  0  0  0  0  0  0  0
    7.7394    5.7823    0.0000 C   0  0  0  0  0  0  0  0  0  0  0  0
    8.6035    6.2857    0.0000 C   0  0  0  0  0  0  0  0  0  0  0  0
    6.3301   -2.4736    0.0000 H   0  0  0  0  0  0  0  0  0  0  0  0
    8.2700   -3.5936    0.0000 H   0  0  0  0  0  0  0  0  0  0  0  0
    9.1360   -2.4736    0.0000 H   0  0  0  0  0  0  0  0  0  0  0  0
    8.5991   -1.1636    0.0000 H   0  0  0  0  0  0  0  0  0  0  0  0
    6.9970   -0.8586    0.0000 H   0  0  0  0  0  0  0  0  0  0  0  0
    5.7890   -2.7010    0.0000 H   0  0  0  0  0  0  0  0  0  0  0  0
    5.3905   -3.3912    0.0000 H   0  0  0  0  0  0  0  0  0  0  0  0
    5.1350   -4.1636    0.0000 H   0  0  0  0  0  0  0  0  0  0  0  0
    5.1350   -6.4036    0.0000 H   0  0  0  0  0  0  0  0  0  0  0  0
    3.7320   -6.5936    0.0000 H   0  0  0  0  0  0  0  0  0  0  0  0
    2.8660   -5.4736    0.0000 H   0  0  0  0  0  0  0  0  0  0  0  0
    3.4030   -4.1636    0.0000 H   0  0  0  0  0  0  0  0  0  0  0  0
    1.9264   -4.1759    0.0000 H   0  0  0  0  0  0  0  0  0  0  0  0
    2.3249   -4.8662    0.0000 H   0  0  0  0  0  0  0  0  0  0  0  0
    8.2700   -4.5936    0.0000 H   0  0  0  0  0  0  0  0  0  0  0  0
    9.4651   -3.9036    0.0000 H   0  0  0  0  0  0  0  0  0  0  0  0
   10.0021   -1.5936    0.0000 H   0  0  0  0  0  0  0  0  0  0  0  0
    6.5380   -5.9736    0.0000 H   0  0  0  0  0  0  0  0  0  0  0  0
    3.7320   -7.5936    0.0000 H   0  0  0  0  0  0  0  0  0  0  0  0
    2.0000   -5.9736    0.0000 H   0  0  0  0  0  0  0  0  0  0  0  0
    6.3301    1.5264    0.0000 H   0  0  0  0  0  0  0  0  0  0  0  0
    2.0000   -2.9736    0.0000 H   0  0  0  0  0  0  0  0  0  0  0  0
   10.0021    0.0264    0.0000 H   0  0  0  0  0  0  0  0  0  0  0  0
    5.4641    0.0264    0.0000 H   0  0  0  0  0  0  0  0  0  0  0  0
   10.0553    3.0728    0.0000 H   0  0  0  0  0  0  0  0  0  0  0  0
   10.0134    4.4811    0.0000 H   0  0  0  0  0  0  0  0  0  0  0  0
    7.2075    4.4703    0.0000 H   0  0  0  0  0  0  0  0  0  0  0  0
    7.2013    6.0902    0.0000 H   0  0  0  0  0  0  0  0  0  0  0  0
   10.3332    6.9123    0.0000 H   0  0  0  0  0  0  0  0  0  0  0  0
    8.0615    7.5936    0.0000 H   0  0  0  0  0  0  0  0  0  0  0  0
  1 17  1  0  0  0  0
  1 21  1  0  0  0  0
  2 22  1  0  0  0  0
 23  2  1  1  0  0  0
  3 23  1  0  0  0  0
  3 27  1  0  0  0  0
 18  4  1  6  0  0  0
  4 58  1  0  0  0  0
 19  5  1  1  0  0  0
  5 59  1  0  0  0  0
 20  6  1  6  0  0  0
  6 60  1  0  0  0  0
 24  7  1  6  0  0  0
  7 61  1  0  0  0  0
 25  8  1  1  0  0  0
  8 62  1  0  0  0  0
 26  9  1  6  0  0  0
  9 63  1  0  0  0  0
 10 29  1  0  0  0  0
 10 65  1  0  0  0  0
 11 30  1  0  0  0  0
 11 66  1  0  0  0  0
 12 31  1  0  0  0  0
 12 67  1  0  0  0  0
 13 34  1  0  0  0  0
 13 37  1  0  0  0  0
 14 35  2  0  0  0  0
 15 41  1  0  0  0  0
 15 72  1  0  0  0  0
 16 43  1  0  0  0  0
 16 73  1  0  0  0  0
 17 18  1  0  0  0  0
 17 22  1  1  0  0  0
 17 44  1  0  0  0  0
 18 19  1  0  0  0  0
 18 45  1  0  0  0  0
 19 20  1  0  0  0  0
 19 46  1  0  0  0  0
 20 21  1  0  0  0  0
 20 47  1  0  0  0  0
 21 28  1  0  0  0  0
 21 48  1  6  0  0  0
 22 49  1  0  0  0  0
 22 50  1  0  0  0  0
 23 24  1  0  0  0  0
 23 51  1  0  0  0  0
 24 25  1  0  0  0  0
 24 52  1  0  0  0  0
 25 26  1  0  0  0  0
 25 53  1  0  0  0  0
 26 27  1  0  0  0  0
 26 54  1  0  0  0  0
 27 29  1  1  0  0  0
 27 55  1  0  0  0  0
 28 30  1  0  0  0  0
 28 31  2  0  0  0  0
 29 56  1  0  0  0  0
 29 57  1  0  0  0  0
 30 32  2  0  0  0  0
 31 33  1  0  0  0  0
 32 34  1  0  0  0  0
 32 35  1  0  0  0  0
 33 34  2  0  0  0  0
 33 64  1  0  0  0  0
 35 36  1  0  0  0  0
 36 37  2  0  0  0  0
 36 68  1  0  0  0  0
 37 38  1  0  0  0  0
 38 39  2  0  0  0  0
 38 40  1  0  0  0  0
 39 41  1  0  0  0  0
 39 69  1  0  0  0  0
 40 42  2  0  0  0  0
 40 70  1  0  0  0  0
 41 43  2  0  0  0  0
 42 43  1  0  0  0  0
 42 71  1  0  0  0  0
M  END
> <PUBCHEM_COMPOUND_CID>
180730

> <PUBCHEM_COMPOUND_CANONICALIZED>
1

> <PUBCHEM_CACTVS_COMPLEXITY>
1010

> <PUBCHEM_CACTVS_HBOND_ACCEPTOR>
16

> <PUBCHEM_CACTVS_HBOND_DONOR>
11

> <PUBCHEM_CACTVS_ROTATABLE_BOND>
6

> <PUBCHEM_CACTVS_SUBSKEYS>
AAADceB4PgAAAAAAAAAAAAAAAAAAAAAAAAA0aIECAAAAAACBQAAAGgAACAAADBSwmAMwDoAABgCIAqBSAAACCAAkIAAIiAEGiMgdNzaGNRqieWGl4BUPuQfI7PzOIAADCAAIQABAAAYQABCAAAAAAAAAAA==

> <PUBCHEM_IUPAC_OPENEYE_NAME>
2-(3,4-dihydroxyphenyl)-5,7-dihydroxy-6-[(2S,3R,4R,5S,6R)-3,4,5-trihydroxy-6-[[(2R,3R,4S,5S,6R)-3,4,5-trihydroxy-6-(hydroxymethyl)tetrahydropyran-2-yl]oxymethyl]tetrahydropyran-2-yl]chromen-4-one

> <PUBCHEM_IUPAC_CAS_NAME>
2-(3,4-dihydroxyphenyl)-5,7-dihydroxy-6-[(2S,3R,4R,5S,6R)-3,4,5-trihydroxy-6-[[(2R,3R,4S,5S,6R)-3,4,5-trihydroxy-6-(hydroxymethyl)-2-oxanyl]oxymethyl]-2-oxanyl]-1-benzopyran-4-one

> <PUBCHEM_IUPAC_NAME>
2-(3,4-dihydroxyphenyl)-5,7-dihydroxy-6-[(2S,3R,4R,5S,6R)-3,4,5-trihydroxy-6-[[(2R,3R,4S,5S,6R)-3,4,5-trihydroxy-6-(hydroxymethyl)oxan-2-yl]oxymethyl]oxan-2-yl]chromen-4-one

> <PUBCHEM_IUPAC_SYSTEMATIC_NAME>
2-[3,4-bis(oxidanyl)phenyl]-6-[(2S,3R,4R,5S,6R)-6-[[(2R,3R,4S,5S,6R)-6-(hydroxymethyl)-3,4,5-tris(oxidanyl)oxan-2-yl]oxymethyl]-3,4,5-tris(oxidanyl)oxan-2-yl]-5,7-bis(oxidanyl)chromen-4-one

> <PUBCHEM_IUPAC_TRADITIONAL_NAME>
2-(3,4-dihydroxyphenyl)-5,7-dihydroxy-6-[(2S,3R,4R,5S,6R)-3,4,5-trihydroxy-6-[[(2R,3R,4S,5S,6R)-3,4,5-trihydroxy-6-methylol-tetrahydropyran-2-yl]oxymethyl]tetrahydropyran-2-yl]chromone

> <PUBCHEM_IUPAC_INCHI>
InChI=1S/C27H30O16/c28-6-15-19(33)23(37)25(39)27(43-15)40-7-16-20(34)22(36)24(38)26(42-16)18-12(32)5-14-17(21(18)35)11(31)4-13(41-14)8-1-2-9(29)10(30)3-8/h1-5,15-16,19-20,22-30,32-39H,6-7H2/t15-,16-,19-,20-,22+,23+,24-,25-,26+,27-/m1/s1

> <PUBCHEM_IUPAC_INCHIKEY>
WJLJMQTUQORVBM-KETMJRJWSA-N

> <PUBCHEM_XLOGP3_AA>
-2.3

> <PUBCHEM_EXACT_MASS>
610.153

> <PUBCHEM_MOLECULAR_FORMULA>
C27H30O16

> <PUBCHEM_MOLECULAR_WEIGHT>
610.521

> <PUBCHEM_OPENEYE_CAN_SMILES>
C1=CC(=C(C=C1C2=CC(=O)C3=C(C(=C(C=C3O2)O)C4C(C(C(C(O4)COC5C(C(C(C(O5)CO)O)O)O)O)O)O)O)O)O

> <PUBCHEM_OPENEYE_ISO_SMILES>
C1=CC(=C(C=C1C2=CC(=O)C3=C(C(=C(C=C3O2)O)[C@H]4[C@@H]([C@H]([C@@H]([C@H](O4)CO[C@H]5[C@@H]([C@H]([C@@H]([C@H](O5)CO)O)O)O)O)O)O)O)O)O

> <PUBCHEM_CACTVS_TPSA>
277

> <PUBCHEM_MONOISOTOPIC_WEIGHT>
610.153

> <PUBCHEM_TOTAL_CHARGE>
0

> <PUBCHEM_HEAVY_ATOM_COUNT>
43

> <PUBCHEM_ATOM_DEF_STEREO_COUNT>
10

> <PUBCHEM_ATOM_UDEF_STEREO_COUNT>
0

> <PUBCHEM_BOND_DEF_STEREO_COUNT>
0

> <PUBCHEM_BOND_UDEF_STEREO_COUNT>
0

> <PUBCHEM_ISOTOPIC_ATOM_COUNT>
0

> <PUBCHEM_COMPONENT_COUNT>
1

> <PUBCHEM_CACTVS_TAUTO_COUNT>
162

> <PUBCHEM_COORDINATE_TYPE>
1
5
255

> <PUBCHEM_BONDANNOTATIONS>
13  34  8
13  37  8
17  22  5
23  2  5
21  48  6
27  29  5
28  30  8
28  31  8
30  32  8
31  33  8
32  34  8
32  35  8
33  34  8
35  36  8
36  37  8
38  39  8
38  40  8
39  41  8
18  4  6
40  42  8
41  43  8
42  43  8
19  5  5
20  6  6
24  7  6
25  8  5
26  9  6

$$$$
