80208
  -OEChem-06011708432D

 20 20  0     0  0  0  0  0  0999 V2000
    4.5981    2.5000    0.0000 O   0  5  0  0  0  0  0  0  0  0  0  0
    2.8660    2.5000    0.0000 O   0  0  0  0  0  0  0  0  0  0  0  0
    3.7320    2.0000    0.0000 N   0  3  0  0  0  0  0  0  0  0  0  0
    2.8660    0.5000    0.0000 C   0  0  0  0  0  0  0  0  0  0  0  0
    2.8660   -0.5000    0.0000 C   0  0  0  0  0  0  0  0  0  0  0  0
    3.7320    1.0000    0.0000 C   0  0  0  0  0  0  0  0  0  0  0  0
    2.0000   -1.0000    0.0000 C   0  0  0  0  0  0  0  0  0  0  0  0
    3.7320   -1.0000    0.0000 C   0  0  0  0  0  0  0  0  0  0  0  0
    2.0000   -2.0000    0.0000 C   0  0  0  0  0  0  0  0  0  0  0  0
    3.7320   -2.0000    0.0000 C   0  0  0  0  0  0  0  0  0  0  0  0
    2.8660   -2.5000    0.0000 C   0  0  0  0  0  0  0  0  0  0  0  0
    2.6540    1.0826    0.0000 H   0  0  0  0  0  0  0  0  0  0  0  0
    2.2554    0.3923    0.0000 H   0  0  0  0  0  0  0  0  0  0  0  0
    3.9441    0.4174    0.0000 H   0  0  0  0  0  0  0  0  0  0  0  0
    4.3426    1.1077    0.0000 H   0  0  0  0  0  0  0  0  0  0  0  0
    1.4631   -0.6900    0.0000 H   0  0  0  0  0  0  0  0  0  0  0  0
    4.2690   -0.6900    0.0000 H   0  0  0  0  0  0  0  0  0  0  0  0
    1.4631   -2.3100    0.0000 H   0  0  0  0  0  0  0  0  0  0  0  0
    4.2690   -2.3100    0.0000 H   0  0  0  0  0  0  0  0  0  0  0  0
    2.8660   -3.1200    0.0000 H   0  0  0  0  0  0  0  0  0  0  0  0
  1  3  1  0  0  0  0
  2  3  2  0  0  0  0
  3  6  1  0  0  0  0
  4  5  1  0  0  0  0
  4  6  1  0  0  0  0
  4 12  1  0  0  0  0
  4 13  1  0  0  0  0
  5  7  2  0  0  0  0
  5  8  1  0  0  0  0
  6 14  1  0  0  0  0
  6 15  1  0  0  0  0
  7  9  1  0  0  0  0
  7 16  1  0  0  0  0
  8 10  2  0  0  0  0
  8 17  1  0  0  0  0
  9 11  2  0  0  0  0
  9 18  1  0  0  0  0
 10 11  1  0  0  0  0
 10 19  1  0  0  0  0
 11 20  1  0  0  0  0
M  CHG  2   1  -1   3   1
M  END
> <PUBCHEM_COMPOUND_CID>
80208

> <PUBCHEM_COMPOUND_CANONICALIZED>
1

> <PUBCHEM_CACTVS_COMPLEXITY>
125

> <PUBCHEM_CACTVS_HBOND_ACCEPTOR>
2

> <PUBCHEM_CACTVS_HBOND_DONOR>
0

> <PUBCHEM_CACTVS_ROTATABLE_BOND>
2

> <PUBCHEM_CACTVS_SUBSKEYS>
AAADccByMAAAAAAAAAAAAAAAAAAAAAAAAAAwAAAAAAAAAAABAAAAHAAEAAAADADBGAQwAIAQQACBAiBCAwACAAAgAAAoiAAAAIgIICKAkRGAIAAggAAIiAcQgIAOAAAAAAAAAAAAAAAAAAAAAAAAAAAAAA==

> <PUBCHEM_IUPAC_OPENEYE_NAME>
2-nitroethylbenzene

> <PUBCHEM_IUPAC_CAS_NAME>
2-nitroethylbenzene

> <PUBCHEM_IUPAC_NAME>
2-nitroethylbenzene

> <PUBCHEM_IUPAC_SYSTEMATIC_NAME>
2-nitroethylbenzene

> <PUBCHEM_IUPAC_TRADITIONAL_NAME>
2-nitroethylbenzene

> <PUBCHEM_IUPAC_INCHI>
InChI=1S/C8H9NO2/c10-9(11)7-6-8-4-2-1-3-5-8/h1-5H,6-7H2

> <PUBCHEM_IUPAC_INCHIKEY>
XAWCLWKTUKMCMO-UHFFFAOYSA-N

> <PUBCHEM_XLOGP3>
2.1

> <PUBCHEM_EXACT_MASS>
151.063

> <PUBCHEM_MOLECULAR_FORMULA>
C8H9NO2

> <PUBCHEM_MOLECULAR_WEIGHT>
151.165

> <PUBCHEM_OPENEYE_CAN_SMILES>
C1=CC=C(C=C1)CC[N+](=O)[O-]

> <PUBCHEM_OPENEYE_ISO_SMILES>
C1=CC=C(C=C1)CC[N+](=O)[O-]

> <PUBCHEM_CACTVS_TPSA>
45.8

> <PUBCHEM_MONOISOTOPIC_WEIGHT>
151.063

> <PUBCHEM_TOTAL_CHARGE>
0

> <PUBCHEM_HEAVY_ATOM_COUNT>
11

> <PUBCHEM_ATOM_DEF_STEREO_COUNT>
0

> <PUBCHEM_ATOM_UDEF_STEREO_COUNT>
0

> <PUBCHEM_BOND_DEF_STEREO_COUNT>
0

> <PUBCHEM_BOND_UDEF_STEREO_COUNT>
0

> <PUBCHEM_ISOTOPIC_ATOM_COUNT>
0

> <PUBCHEM_COMPONENT_COUNT>
1

> <PUBCHEM_CACTVS_TAUTO_COUNT>
2

> <PUBCHEM_COORDINATE_TYPE>
1
5
255

> <PUBCHEM_BONDANNOTATIONS>
10  11  8
5  7  8
5  8  8
7  9  8
8  10  8
9  11  8

$$$$
